 xtb: 6.6.0 (conda-forge)
          09192414523D

 12 12  0     0  0            999 V2000
    0.4891   -1.2953   -0.0003 C   0  0  0  0  0  0  0  0  0  0  0  0
    1.3663   -0.2241   -0.0143 C   0  0  0  0  0  0  0  0  0  0  0  0
    0.8772    1.0712   -0.0140 C   0  0  0  0  0  0  0  0  0  0  0  0
   -0.4891    1.2953    0.0003 C   0  0  0  0  0  0  0  0  0  0  0  0
   -1.3663    0.2241    0.0143 C   0  0  0  0  0  0  0  0  0  0  0  0
   -0.8772   -1.0712    0.0140 C   0  0  0  0  0  0  0  0  0  0  0  0
    0.8708   -2.3062   -0.0005 H   0  0  0  0  0  0  0  0  0  0  0  0
    2.4325   -0.3990   -0.0254 H   0  0  0  0  0  0  0  0  0  0  0  0
    1.5617    1.9071   -0.0249 H   0  0  0  0  0  0  0  0  0  0  0  0
   -0.8708    2.3062    0.0005 H   0  0  0  0  0  0  0  0  0  0  0  0
   -2.4325    0.3990    0.0254 H   0  0  0  0  0  0  0  0  0  0  0  0
   -1.5617   -1.9071    0.0249 H   0  0  0  0  0  0  0  0  0  0  0  0
  1  2  4  0  0  0  0
  2  3  4  0  0  0  0
  3  4  4  0  0  0  0
  4  5  4  0  0  0  0
  1  6  4  0  0  0  0
  5  6  4  0  0  0  0
  1  7  1  0  0  0  0
  2  8  1  0  0  0  0
  3  9  1  0  0  0  0
  4 10  1  0  0  0  0
  5 11  1  0  0  0  0
  6 12  1  0  0  0  0
M  END
