 xtb: 6.6.0 (conda-forge)
          09172417383D

 76 79  0     0  0            999 V2000
    8.4669   -0.9886   -0.7541 C   0  0  0  0  0  0  0  0  0  0  0  0
    7.5864   -0.2802    0.2816 C   0  0  0  0  0  0  0  0  0  0  0  0
    7.7114    1.2384    0.1176 C   0  0  0  0  0  0  0  0  0  0  0  0
    6.1223   -0.6768    0.2118 C   0  0  0  0  0  0  0  0  0  0  0  0
    5.5686   -1.3544   -0.8658 C   0  0  0  0  0  0  0  0  0  0  0  0
    4.2225   -1.6683   -0.8850 C   0  0  0  0  0  0  0  0  0  0  0  0
    3.3881   -1.3146    0.1674 C   0  0  0  0  0  0  0  0  0  0  0  0
    3.9418   -0.6469    1.2499 C   0  0  0  0  0  0  0  0  0  0  0  0
    5.2877   -0.3326    1.2695 C   0  0  0  0  0  0  0  0  0  0  0  0
    1.9120   -1.6483    0.0940 C   0  0  0  0  0  0  0  0  0  0  0  0
    1.2343   -0.8347   -1.0250 C   0  0  0  0  0  0  0  0  0  0  0  0
    1.5123    0.6657   -0.9356 C   0  0  0  0  0  0  0  0  0  0  0  0
    0.5328    1.4412   -1.8210 C   0  0  0  0  0  0  0  0  0  0  0  0
   -0.8357    1.1680   -1.4306 N   0  0  0  0  0  0  0  0  0  0  0  0
   -1.7865    1.2909   -2.5215 C   0  0  0  0  0  0  0  0  0  0  0  0
   -3.2182    1.1127   -1.9991 C   0  0  0  0  0  0  0  0  0  0  0  0
   -3.1722    0.3110   -0.6967 C   0  0  0  0  0  0  0  0  0  0  0  0
   -2.4967    1.1948    0.3548 C   0  0  0  0  0  0  0  0  0  0  0  0
   -1.2949    1.9178   -0.2788 C   0  0  0  0  0  0  0  0  0  0  0  0
   -4.5746   -0.2214   -0.2934 C   0  0  0  0  0  0  0  0  0  0  0  0
   -5.5062    0.9398    0.0005 C   0  0  0  0  0  0  0  0  0  0  0  0
   -6.3049    1.4714   -1.0025 C   0  0  0  0  0  0  0  0  0  0  0  0
   -7.1309    2.5516   -0.7454 C   0  0  0  0  0  0  0  0  0  0  0  0
   -7.1664    3.1172    0.5169 C   0  0  0  0  0  0  0  0  0  0  0  0
   -6.3791    2.5870    1.5250 C   0  0  0  0  0  0  0  0  0  0  0  0
   -5.5569    1.5041    1.2711 C   0  0  0  0  0  0  0  0  0  0  0  0
   -4.5484   -1.1927    0.8839 C   0  0  0  0  0  0  0  0  0  0  0  0
   -5.7756   -1.5558    1.4350 C   0  0  0  0  0  0  0  0  0  0  0  0
   -5.8515   -2.4816    2.4574 C   0  0  0  0  0  0  0  0  0  0  0  0
   -4.6978   -3.0717    2.9464 C   0  0  0  0  0  0  0  0  0  0  0  0
   -3.4771   -2.7400    2.3888 C   0  0  0  0  0  0  0  0  0  0  0  0
   -3.4019   -1.8157    1.3587 C   0  0  0  0  0  0  0  0  0  0  0  0
   -5.1209   -0.9360   -1.4046 O   0  0  0  0  0  0  0  0  0  0  0  0
    1.2362   -1.4889    1.3194 O   0  0  0  0  0  0  0  0  0  0  0  0
    8.0985   -0.6861    1.6592 C   0  0  0  0  0  0  0  0  0  0  0  0
    8.5402    0.0567    2.4934 O   0  0  0  0  0  0  0  0  0  0  0  0
    8.0089   -2.0075    1.8533 O   0  0  0  0  0  0  0  0  0  0  0  0
    8.3448   -2.0667   -0.6880 H   0  0  0  0  0  0  0  0  0  0  0  0
    9.5119   -0.7453   -0.5704 H   0  0  0  0  0  0  0  0  0  0  0  0
    8.2140   -0.6544   -1.7572 H   0  0  0  0  0  0  0  0  0  0  0  0
    7.3307    1.5369   -0.8562 H   0  0  0  0  0  0  0  0  0  0  0  0
    8.7527    1.5390    0.2017 H   0  0  0  0  0  0  0  0  0  0  0  0
    7.1463    1.7547    0.8886 H   0  0  0  0  0  0  0  0  0  0  0  0
    6.1811   -1.6485   -1.7030 H   0  0  0  0  0  0  0  0  0  0  0  0
    3.8155   -2.2032   -1.7311 H   0  0  0  0  0  0  0  0  0  0  0  0
    3.3242   -0.3853    2.0966 H   0  0  0  0  0  0  0  0  0  0  0  0
    5.6958    0.1867    2.1253 H   0  0  0  0  0  0  0  0  0  0  0  0
    1.8089   -2.7165   -0.1360 H   0  0  0  0  0  0  0  0  0  0  0  0
    0.1562   -0.9873   -0.9510 H   0  0  0  0  0  0  0  0  0  0  0  0
    1.5653   -1.2063   -1.9950 H   0  0  0  0  0  0  0  0  0  0  0  0
    1.4109    1.0083    0.0969 H   0  0  0  0  0  0  0  0  0  0  0  0
    2.5349    0.8817   -1.2505 H   0  0  0  0  0  0  0  0  0  0  0  0
    0.7677    2.5191   -1.7880 H   0  0  0  0  0  0  0  0  0  0  0  0
    0.6603    1.1052   -2.8533 H   0  0  0  0  0  0  0  0  0  0  0  0
   -1.5488    0.5080   -3.2489 H   0  0  0  0  0  0  0  0  0  0  0  0
   -1.6969    2.2662   -3.0332 H   0  0  0  0  0  0  0  0  0  0  0  0
   -3.6801    2.0817   -1.8037 H   0  0  0  0  0  0  0  0  0  0  0  0
   -3.8242    0.5986   -2.7444 H   0  0  0  0  0  0  0  0  0  0  0  0
   -2.5376   -0.5611   -0.8880 H   0  0  0  0  0  0  0  0  0  0  0  0
   -3.2043    1.9370    0.7243 H   0  0  0  0  0  0  0  0  0  0  0  0
   -2.1713    0.5919    1.2024 H   0  0  0  0  0  0  0  0  0  0  0  0
   -0.4847    1.9966    0.4470 H   0  0  0  0  0  0  0  0  0  0  0  0
   -1.5759    2.9465   -0.5664 H   0  0  0  0  0  0  0  0  0  0  0  0
   -6.2861    1.0210   -1.9816 H   0  0  0  0  0  0  0  0  0  0  0  0
   -7.7495    2.9521   -1.5355 H   0  0  0  0  0  0  0  0  0  0  0  0
   -7.8092    3.9618    0.7178 H   0  0  0  0  0  0  0  0  0  0  0  0
   -6.4076    3.0157    2.5165 H   0  0  0  0  0  0  0  0  0  0  0  0
   -4.9632    1.0843    2.0705 H   0  0  0  0  0  0  0  0  0  0  0  0
   -6.6768   -1.1038    1.0477 H   0  0  0  0  0  0  0  0  0  0  0  0
   -6.8135   -2.7439    2.8727 H   0  0  0  0  0  0  0  0  0  0  0  0
   -4.7520   -3.7916    3.7497 H   0  0  0  0  0  0  0  0  0  0  0  0
   -2.5707   -3.2036    2.7496 H   0  0  0  0  0  0  0  0  0  0  0  0
   -2.4317   -1.5997    0.9404 H   0  0  0  0  0  0  0  0  0  0  0  0
   -4.5740   -1.7155   -1.5523 H   0  0  0  0  0  0  0  0  0  0  0  0
    1.1251   -0.5453    1.4817 H   0  0  0  0  0  0  0  0  0  0  0  0
    8.3371   -2.2414    2.7358 H   0  0  0  0  0  0  0  0  0  0  0  0
  1  2  1  0  0  0  0
  2  3  1  0  0  0  0
  2  4  1  0  0  0  0
  4  5  4  0  0  0  0
  5  6  4  0  0  0  0
  6  7  4  0  0  0  0
  7  8  4  0  0  0  0
  4  9  4  0  0  0  0
  8  9  4  0  0  0  0
  7 10  1  0  0  0  0
 10 11  1  0  0  0  0
 11 12  1  0  0  0  0
 12 13  1  0  0  0  0
 13 14  1  0  0  0  0
 14 15  1  0  0  0  0
 15 16  1  0  0  0  0
 16 17  1  0  0  0  0
 17 18  1  0  0  0  0
 14 19  1  0  0  0  0
 18 19  1  0  0  0  0
 17 20  1  0  0  0  0
 20 21  1  0  0  0  0
 21 22  4  0  0  0  0
 22 23  4  0  0  0  0
 23 24  4  0  0  0  0
 24 25  4  0  0  0  0
 21 26  4  0  0  0  0
 25 26  4  0  0  0  0
 20 27  1  0  0  0  0
 27 28  4  0  0  0  0
 28 29  4  0  0  0  0
 29 30  4  0  0  0  0
 30 31  4  0  0  0  0
 27 32  4  0  0  0  0
 31 32  4  0  0  0  0
 20 33  1  0  0  0  0
 10 34  1  0  0  0  0
  2 35  1  0  0  0  0
 35 36  2  0  0  0  0
 35 37  1  0  0  0  0
  1 38  1  0  0  0  0
  1 39  1  0  0  0  0
  1 40  1  0  0  0  0
  3 41  1  0  0  0  0
  3 42  1  0  0  0  0
  3 43  1  0  0  0  0
  5 44  1  0  0  0  0
  6 45  1  0  0  0  0
  8 46  1  0  0  0  0
  9 47  1  0  0  0  0
 10 48  1  0  0  0  0
 11 49  1  0  0  0  0
 11 50  1  0  0  0  0
 12 51  1  0  0  0  0
 12 52  1  0  0  0  0
 13 53  1  0  0  0  0
 13 54  1  0  0  0  0
 15 55  1  0  0  0  0
 15 56  1  0  0  0  0
 16 57  1  0  0  0  0
 16 58  1  0  0  0  0
 17 59  1  0  0  0  0
 18 60  1  0  0  0  0
 18 61  1  0  0  0  0
 19 62  1  0  0  0  0
 19 63  1  0  0  0  0
 22 64  1  0  0  0  0
 23 65  1  0  0  0  0
 24 66  1  0  0  0  0
 25 67  1  0  0  0  0
 26 68  1  0  0  0  0
 28 69  1  0  0  0  0
 29 70  1  0  0  0  0
 30 71  1  0  0  0  0
 31 72  1  0  0  0  0
 32 73  1  0  0  0  0
 33 74  1  0  0  0  0
 34 75  1  0  0  0  0
 37 76  1  0  0  0  0
M  END
