144
Cu Se Cu Se Cu Se Cu Se Cu Se Cu Se Cu Se Cu Se Cu Se Cu Se Cu Se Cu Se
Cu         5.17384       12.14522       11.18076
Cu         0.64673        0.52805       12.36152
Cu         1.29346        1.05611       14.72305
Cu         1.94019        4.22442       11.18076
Cu        14.22806       11.61716       12.36152
Cu         4.52711        1.05611       11.18076
Cu        12.93460        2.64026       11.18076
Cu         5.82057        4.75248       10.00000
Se         0.00000        0.00000       10.00000
Se        11.64114        1.58416       13.54229
Se         3.88038       11.08911       13.54229
Se         2.58692        2.11221       12.36152
Cu         2.58692        4.75248       13.54229
Cu         3.23365        7.92079       10.00000
Cu         3.88038        8.44885       12.36152
Cu         1.94019        9.50495       13.54229
Cu         1.29346        6.33664       10.00000
Cu         4.52711        6.33664       13.54229
Cu        12.93460        7.92079       13.54229
Cu         5.82057       10.03301       12.36152
Se        12.93460        5.28053       12.36152
Se        14.22806        8.97690       11.18076
Se         3.88038        5.80858       11.18076
Se         5.17384        9.50495       10.00000
Cu        10.34768       11.08911       13.54229
Cu         8.40749        1.58416       10.00000
Cu         9.05422        2.11221       12.36152
Cu         7.11403        3.16832       13.54229
Cu         6.46730        0.00000       10.00000
Cu         9.70095        0.00000       13.54229
Cu         5.17384        1.58416       13.54229
Cu        10.99441        3.69637       12.36152
Se         7.76076       11.61716       12.36152
Se         6.46730        2.64026       11.18076
Se        11.64114       12.14522       11.18076
Se        10.34768        3.16832       10.00000
Cu        10.34768        5.80858       11.18076
Cu         8.40749        6.86469       12.36152
Cu         9.05422        7.39274       14.72305
Cu         9.70095       10.56106       11.18076
Cu         6.46730        5.28053       12.36152
Cu        12.28787        7.39274       11.18076
Cu         7.76076        8.97690       11.18076
Cu        13.58133       11.08911       10.00000
Se         7.76076        6.33664       10.00000
Se         6.46730        7.92079       13.54229
Se         9.05422        4.75248       13.54229
Se        10.34768        8.44885       12.36152
Cu         2.58692       10.03301       15.90381
Cu        13.58133       11.08911       17.08457
Cu        14.22806       11.61716       19.44610
Cu        12.28787        2.11221       15.90381
Cu        11.64114        9.50495       17.08457
Cu         4.52711       11.61716       15.90381
Cu        10.34768        0.52805       15.90381
Cu         3.23365        2.64026       14.72305
Se        12.93460       10.56106       14.72305
Se        11.64114       12.14522       18.26534
Se        14.22806        8.97690       18.26534
Se        15.52152       12.67327       17.08457
Cu        12.93460        2.64026       18.26534
Cu        13.58133        5.80858       14.72305
Cu        14.22806        6.33664       17.08457
Cu        12.28787        7.39274       18.26534
Cu        11.64114        4.22442       14.72305
Cu         1.94019        4.22442       18.26534
Cu        10.34768        5.80858       18.26534
Cu         3.23365        7.92079       17.08457
Se        10.34768        3.16832       17.08457
Se        11.64114        6.86469       15.90381
Se         1.29346        3.69637       15.90381
Se         2.58692        7.39274       14.72305
Cu         7.76076        8.97690       18.26534
Cu         8.40749       12.14522       14.72305
Cu         9.05422       12.67327       17.08457
Cu         4.52711        1.05611       18.26534
Cu         6.46730       10.56106       14.72305
Cu         9.70095       10.56106       18.26534
Cu         5.17384       12.14522       18.26534
Cu         8.40749        1.58416       17.08457
Se         5.17384        9.50495       17.08457
Se         3.88038        0.52805       15.90381
Se         9.05422       10.03301       15.90381
Se         7.76076        1.05611       14.72305
Cu         7.76076        3.69637       15.90381
Cu         5.82057        4.75248       17.08457
Cu         6.46730        5.28053       19.44610
Cu         7.11403        8.44885       15.90381
Cu         3.88038        3.16832       17.08457
Cu         9.70095        5.28053       15.90381
Cu         5.17384        6.86469       15.90381
Cu        10.99441        8.97690       14.72305
Se         5.17384        4.22442       14.72305
Se         3.88038        5.80858       18.26534
Se         6.46730        2.64026       18.26534
Se         7.76076        6.33664       17.08457
Cu        12.93460        7.92079       20.62686
Cu        10.99441        8.97690       21.80762
Cu        11.64114        9.50495       24.16915
Cu        12.28787       12.67327       20.62686
Cu         9.05422        7.39274       21.80762
Cu        14.87479        9.50495       20.62686
Cu        10.34768       11.08911       20.62686
Cu         0.64673        0.52805       19.44610
Se        10.34768        8.44885       19.44610
Se         9.05422       10.03301       22.98839
Se        11.64114        6.86469       22.98839
Se        12.93460       10.56106       21.80762
Cu        10.34768        0.52805       22.98839
Cu        10.99441        3.69637       19.44610
Cu        11.64114        4.22442       21.80762
Cu         9.70095        5.28053       22.98839
Cu         9.05422        2.11221       19.44610
Cu        12.28787        2.11221       22.98839
Cu         7.76076        3.69637       22.98839
Cu        13.58133        5.80858       21.80762
Se         7.76076        1.05611       21.80762
Se         9.05422        4.75248       20.62686
Se        11.64114        1.58416       20.62686
Se        12.93460        5.28053       19.44610
Cu         5.17384        6.86469       22.98839
Cu         5.82057       10.03301       19.44610
Cu         6.46730       10.56106       21.80762
Cu         4.52711       11.61716       22.98839
Cu         3.88038        8.44885       19.44610
Cu         7.11403        8.44885       22.98839
Cu         2.58692       10.03301       22.98839
Cu         8.40749       12.14522       21.80762
Se         2.58692        7.39274       21.80762
Se         3.88038       11.08911       20.62686
Se         6.46730        7.92079       20.62686
Se         7.76076       11.61716       19.44610
Cu         5.17384        1.58416       20.62686
Cu         3.23365        2.64026       21.80762
Cu         3.88038        3.16832       24.16915
Cu         4.52711        6.33664       20.62686
Cu         1.29346        1.05611       21.80762
Cu         7.11403        3.16832       20.62686
Cu         2.58692        4.75248       20.62686
Cu         8.40749        6.86469       19.44610
Se         2.58692        2.11221       19.44610
Se         1.29346        3.69637       22.98839
Se         3.88038        0.52805       22.98839
Se         5.17384        4.22442       21.80762
