120
title test
Zn 0.342090011 0.722679973 0.886810005
Zn 0.281870008 0.681940019 0.669839978
Zn 0.657909989 0.277319998 0.113190003
Zn 0.718129992 0.318060011 0.330159992
H  0.271699995 0.065499999 0.638499975
H  0.25999999  0.279199988 0.635100007
H  0.360000014 0.34009999  0.924899995
H  0.364199996 0.129500002 0.929499984
H  0.864099979 0.646499991 0.624899983
H  0.659399986 0.672299981 0.637099981
H  0.758099973 0.743099988 0.925999999
H  0.965300024 0.731700003 0.914200008
H  0.363999993 0.906000018 0.065399997
H  0.275400013 0.53640002  0.187000006
H  0.298900008 0.546000004 0.027600000
H  0.480199993 0.760599971 0.381999999
H  0.467000008 0.746900022 0.544700027
H  0.105300002 0.64410001  0.476700008
H  0.432099998 0.981999993 0.291200012
H  0.341699988 0.024599999 0.207200006
H  0.286199987 0.958500028 0.289999992
H  0.066799998 0.604099989 0.227200001
H  0.994899988 0.594799995 0.315600008
H  0.026900001 0.72299999  0.274800003
H  0.728299975 0.934499979 0.361499995
H  0.740000010 0.720799983 0.364899993
H  0.639999986 0.659900010 0.075099997
H  0.635800004 0.870500028 0.070500001
H  0.135900006 0.353500009 0.375099987
H  0.340600014 0.327699989 0.362899989
H  0.241899997 0.256900012 0.074000001
H  0.034699999 0.268299997 0.085800000
H  0.635999978 0.093999997 0.934599996
H  0.724600017 0.463600010 0.813000023
H  0.701099992 0.453999996 0.972400010
H  0.519800007 0.239399999 0.617999971
H  0.532999992 0.253100008 0.455300003
H  0.894699991 0.355899990 0.523299992
H  0.567900002 0.017999999 0.708800018
H  0.658299983 0.975399971 0.792800009
H  0.713800013 0.041499998 0.709999979
H  0.933200002 0.395900011 0.772800028
H  0.005100000 0.405200005 0.684400022
H  0.973100007 0.277000010 0.725199997
C  0.325100005 0.939400017 0.787800014
C  0.319000006 0.078000002 0.785700023
C  0.287800014 0.119800001 0.696200013
C  0.281100005 0.249400005 0.694599986
C  0.304800004 0.328999996 0.778100014
C  0.339700013 0.285400003 0.867399991
C  0.344000012 0.158999994 0.869700015
C  0.300700009 0.465600014 0.772800028
C  0.071000002 0.685400009 0.759400010
C  0.935699999 0.691699982 0.768899977
C  0.844200015 0.669600010 0.685400009
C  0.720300019 0.682900012 0.693400025
C  0.687399983 0.711000025 0.782100022
C  0.779399991 0.726800025 0.864899993
C  0.903800011 0.718699992 0.857999980
C  0.552999973 0.717000008 0.789900005
C  0.347200006 0.830500007 0.090899996
C  0.335399985 0.832899988 0.188899994
C  0.307900012 0.721099973 0.225999996
C  0.294299990 0.613600016 0.164600000
C  0.308800012 0.620400012 0.068300001
C  0.293900013 0.714699984 0.329400003
C  0.401699990 0.737600029 0.399699986
C  0.394100010 0.726700008 0.497399986
C  0.182400003 0.667299986 0.456999987
C  0.180800006 0.677600026 0.357499987
C  0.350300014 0.961799979 0.250200003
C  0.055900000 0.647099972 0.287299991
C  0.674899995 0.060600001 0.212200001
C  0.680999994 0.921999991 0.214300007
C  0.712199986 0.880200028 0.303799987
C  0.718900025 0.750599980 0.305400014
C  0.695200026 0.671000004 0.221900001
C  0.660300016 0.714600027 0.132599995
C  0.656000018 0.841000021 0.130300000
C  0.699299991 0.534399986 0.227200001
C  0.929000020 0.314599991 0.240600005
C  0.064300001 0.308299989 0.231099993
C  0.155800000 0.330399990 0.314599991
C  0.279700011 0.317099988 0.306600004
C  0.312599987 0.289000005 0.217899993
C  0.220599994 0.273200005 0.135100007
C  0.096199997 0.281300008 0.142000005
C  0.446999997 0.282999992 0.210099995
C  0.652800024 0.169499993 0.909099996
C  0.664600015 0.167099997 0.811100006
C  0.692099988 0.278899997 0.773999989
C  0.705699980 0.386400014 0.835399985
C  0.691200018 0.379599988 0.931699991
C  0.706099987 0.285299987 0.670599997
C  0.598299980 0.262400001 0.600300014
C  0.605899990 0.273299992 0.502600014
C  0.817600012 0.332700014 0.542999983
C  0.819199979 0.322400004 0.642499983
C  0.649699986 0.038199998 0.749800026
C  0.944100022 0.352899998 0.712700009
N  0.335099995 0.723900020 0.031800002
N  0.283199996 0.687600017 0.523500025
N  0.664900005 0.276100010 0.968200028
N  0.716799974 0.312400013 0.476500005
O  0.302100003 0.869400024 0.706399977
O  0.352200001 0.906400025 0.871699989
O  0.324999988 0.535600007 0.853799999
O  0.270300001 0.501600027 0.691699982
O  0.096400000 0.671199977 0.674899995
O  0.148100004 0.700200021 0.838500023
O  0.474599987 0.700600028 0.711199999
O  0.528699994 0.737600029 0.874400020
O  0.697899997 0.130600005 0.293599993
O  0.647800028 0.093599997 0.128299996
O  0.675000012 0.464399993 0.146200001
O  0.729700029 0.498400003 0.308299989
O  0.903599977 0.328799993 0.325100005
O  0.851899981 0.299800009 0.161500007
O  0.525399983 0.299400002 0.288800001
O  0.471300006 0.262400001 0.125599995
